LAMMPS (2 Aug 2023)
# sample LAMMPS input script for thermal conductivity of liquid LJ
# thermostatting 2 regions via fix langevin

# settings

variable	x equal 10
variable	y equal 10
variable	z equal 20

variable	rho equal 0.6
variable        t equal 1.35
variable	rc equal 2.5
variable        tlo equal 1.0
variable        thi equal 1.70

#variable	rho equal 0.85
#variable        t equal 0.7
#variable	rc equal 3.0
#variable        tlo equal 0.3
#variable        thi equal 1.0

# setup problem

units		lj
atom_style	atomic

lattice		fcc 0.6
Lattice spacing in x,y,z = 1.8820721 1.8820721 1.8820721
region		box block 0 $x 0 $y 0 $z
region		box block 0 10 0 $y 0 $z
region		box block 0 10 0 10 0 $z
region		box block 0 10 0 10 0 20
create_box	1 box
Created orthogonal box = (0 0 0) to (18.820721 18.820721 37.641441)
create_atoms	1 box
Created 8000 atoms
mass		1 1.0

velocity	all create $t 87287
velocity	all create 1.35 87287

pair_style	lj/cut 2.5
pair_coeff	1 1 1.0 1.0

neighbor	0.3 bin
neigh_modify	delay 0 every 1

# heat layers

region          hot block INF INF INF INF 0 1
region          cold block  INF INF INF INF 10 11
compute         Thot all temp/region hot
compute         Tcold all temp/region cold

# 1st equilibration run

fix             1 all nvt temp $t $t 0.5
fix             1 all nvt temp 1.35 $t 0.5
fix             1 all nvt temp 1.35 1.35 0.5
thermo	        100
run             1000
Generated 0 of 0 mixed pair_coeff terms from geometric mixing rule
Step          Temp          E_pair         E_mol          TotEng         Press
0   1.35          -4.1241917      0             -2.0994448     -3.1961613
Averages over the last 6 of 11 rows, steps 500 to 1000:
Temp E_pair E_mol TotEng Press
1.35192 -3.70114 0 -1.67352 0.864358
Loop time of 2.96016 on 1 procs for 1000 steps with 8000 atoms

velocity	all scale $t
velocity	all scale 1.35

unfix		1

# 2nd equilibration run

fix		1 all nve
fix             hot all langevin 1.7 1.7 1.0 59804 tally yes
fix             cold all langevin 1 1 1.0 287859 tally yes
fix_modify      hot temp Thot
fix_modify      cold temp Tcold

variable        tdiff equal c_Thot-c_Tcold
thermo_style    custom step temp c_Thot c_Tcold f_hot f_cold v_tdiff
thermo	        1000
run             10000
Generated 0 of 0 mixed pair_coeff terms from geometric mixing rule
Step          Temp          c_Thot        c_Tcold         f_hot          f_cold        v_tdiff
1000   1.35           1.2913735      1.3393928     -3.3072467e-20 -1.0271024e-20 -0.048019366
Averages over the last 6 of 11 rows, steps 6000 to 11000:
Temp c_Thot c_Tcold f_hot f_cold v_tdiff
1.33413 1.64835 1.06811 -0.520096 0.609181 0.580244
Loop time of 34.3415 on 1 procs for 10000 steps with 8000 atoms

# thermal conductivity calculation
# reset langevin thermostats to zero energy accumulation

compute		ke all ke/atom
variable	temp atom c_ke/1.5

fix             hot all langevin 1.7 1.7 1.0 59804 tally yes
fix             cold all langevin 1 1 1.0 287859 tally yes
fix_modify      hot temp Thot
fix_modify      cold temp Tcold

fix             ave all ave/time 10 100 1000 v_tdiff ave running
thermo_style    custom step temp c_Thot c_Tcold f_hot f_cold v_tdiff f_ave

compute         layers all chunk/atom bin/1d z lower 0.05 units reduced
fix		2 all ave/chunk 10 100 1000 layers v_temp file profile.langevin

run             20000
Generated 0 of 0 mixed pair_coeff terms from geometric mixing rule
Step          Temp          c_Thot        c_Tcold         f_hot          f_cold        v_tdiff         f_ave
11000   1.3097727      1.618058       1.0041686      4.2302428e-20 -1.7615242e-20  0.6138894      0
Averages over the last 11 of 21 rows, steps 21000 to 31000:
Temp c_Thot c_Tcold f_hot f_cold v_tdiff f_ave
1.28905 1.6409 1.05033 -0.680886 0.724938 0.590567 0.56613
Loop time of 69.1837 on 1 procs for 20000 steps with 8000 atoms
